Version 4
SHEET 1 1036 1652
WIRE -1808 -640 -2320 -640
WIRE -1680 -640 -1808 -640
WIRE -1536 -640 -1680 -640
WIRE -3392 -624 -3440 -624
WIRE -3264 -624 -3312 -624
WIRE -3264 -576 -3264 -624
WIRE -2320 -560 -2368 -560
WIRE -1808 -560 -1856 -560
WIRE -3440 -544 -3440 -624
WIRE -3440 -544 -3488 -544
WIRE -2432 -544 -2496 -544
WIRE -1920 -544 -1968 -544
WIRE -2320 -528 -2368 -528
WIRE -1808 -528 -1856 -528
WIRE -3488 -512 -3488 -544
WIRE -1680 -480 -1680 -640
WIRE -1536 -480 -1536 -640
WIRE -3440 -464 -3440 -544
WIRE -3392 -464 -3440 -464
WIRE -3264 -464 -3264 -512
WIRE -3264 -464 -3312 -464
WIRE -2576 -448 -2576 -544
WIRE -2320 -448 -2320 -528
WIRE -2320 -448 -2576 -448
WIRE -2224 -448 -2320 -448
WIRE -2048 -448 -2048 -544
WIRE -2048 -448 -2144 -448
WIRE -1808 -448 -1808 -528
WIRE -1808 -448 -2048 -448
WIRE -2752 -400 -2768 -400
WIRE -2832 -368 -2832 -400
WIRE -2752 -368 -2752 -400
WIRE -2320 -368 -2320 -448
WIRE -2320 -368 -2368 -368
WIRE -1808 -368 -1808 -448
WIRE -1808 -368 -1856 -368
WIRE -2432 -352 -2496 -352
WIRE -1920 -352 -1968 -352
WIRE -2320 -336 -2368 -336
WIRE -1808 -336 -1856 -336
WIRE -3440 -288 -3440 -464
WIRE -3392 -288 -3392 -336
WIRE -3392 -288 -3440 -288
WIRE -3312 -288 -3312 -336
WIRE -3280 -288 -3280 -304
WIRE -3280 -288 -3312 -288
WIRE -2832 -256 -2832 -288
WIRE -2752 -256 -2752 -288
WIRE -2752 -256 -2832 -256
WIRE -2576 -256 -2576 -352
WIRE -2576 -256 -2752 -256
WIRE -2320 -256 -2320 -336
WIRE -2320 -256 -2576 -256
WIRE -2048 -256 -2048 -352
WIRE -2048 -256 -2320 -256
WIRE -1984 -256 -2048 -256
WIRE -1808 -256 -1808 -336
WIRE -1808 -256 -1984 -256
WIRE -1680 -256 -1680 -416
WIRE -1680 -256 -1808 -256
WIRE -1536 -256 -1536 -400
WIRE -1536 -256 -1680 -256
WIRE -3392 -240 -3392 -288
WIRE -3312 -240 -3312 -288
WIRE -1984 -208 -1984 -256
FLAG -1984 -208 0
FLAG -3488 -512 0
FLAG -3280 -304 VL
FLAG -1536 -640 Vin
SYMBOL AutoGenerated\\IXFH50N60P3 -2400 -544 R0
SYMATTR InstName U1
SYMBOL AutoGenerated\\IXFH50N60P3 -1888 -544 R0
SYMATTR InstName U2
SYMBOL AutoGenerated\\IXFH50N60P3 -2400 -352 R0
SYMATTR InstName U3
SYMBOL AutoGenerated\\IXFH50N60P3 -1888 -352 R0
SYMATTR InstName U4
SYMBOL voltage -1536 -496 R0
WINDOW 123 0 0 Left 2
WINDOW 39 24 44 Left 2
SYMATTR SpiceLine Rser=0.1
SYMATTR InstName V1
SYMATTR Value 325
SYMBOL cap -1696 -480 R0
SYMATTR InstName C1
SYMATTR Value 100µ
SYMBOL ind2 -2240 -432 R270
WINDOW 0 32 56 VTop 2
WINDOW 3 5 56 VBottom 2
SYMATTR InstName L1
SYMATTR Value 100µ
SYMATTR Type ind
SYMATTR SpiceLine Rser=0.1
SYMBOL ind2 -3408 -608 R270
WINDOW 0 32 56 VTop 2
WINDOW 3 5 56 VBottom 2
SYMATTR InstName L2
SYMATTR Value 1µ
SYMATTR Type ind
SYMBOL cap -3248 -512 R180
WINDOW 0 24 56 Left 2
WINDOW 3 24 8 Left 2
SYMATTR InstName C2
SYMATTR Value 5µ
SYMBOL ind2 -3408 -480 M90
WINDOW 0 5 56 VBottom 2
WINDOW 3 32 56 VTop 2
SYMATTR InstName L3
SYMATTR Value 2µ
SYMATTR Type ind
SYMATTR SpiceLine Rser=0.1
SYMBOL ind2 -2592 -528 R270
WINDOW 0 32 56 VTop 2
WINDOW 3 5 56 VBottom 2
SYMATTR InstName L4
SYMATTR Value 10µ
SYMATTR Type ind
SYMATTR SpiceLine Rser=1
SYMBOL ind2 -2480 -336 M270
WINDOW 0 32 56 VTop 2
WINDOW 3 5 56 VBottom 2
SYMATTR InstName L5
SYMATTR Value 10µ
SYMATTR Type ind
SYMATTR SpiceLine Rser=1
SYMBOL ind2 -2064 -336 R270
WINDOW 0 32 56 VTop 2
WINDOW 3 5 56 VBottom 2
SYMATTR InstName L6
SYMATTR Value 10µ
SYMATTR Type ind
SYMATTR SpiceLine Rser=1
SYMBOL ind2 -1952 -528 M270
WINDOW 0 32 56 VTop 2
WINDOW 3 5 56 VBottom 2
SYMATTR InstName L7
SYMATTR Value 10µ
SYMATTR Type ind
SYMATTR SpiceLine Rser=1
SYMBOL ind2 -2768 -384 R0
SYMATTR InstName L8
SYMATTR Value 10µ
SYMATTR Type ind
SYMATTR SpiceLine Rser=0.1 Rpar=0
SYMBOL voltage -2832 -384 M0
WINDOW 123 0 0 Left 2
WINDOW 39 24 44 Left 2
SYMATTR SpiceLine Rser=0.01
SYMATTR InstName V2
SYMATTR Value PULSE(-10 10 0 100n 100n 5u 10u)
SYMBOL ind2 -3408 -320 R270
WINDOW 0 32 56 VTop 2
WINDOW 3 5 56 VBottom 2
SYMATTR InstName L9
SYMATTR Value 2µ
SYMATTR Type ind
SYMBOL res -3296 -256 R90
WINDOW 0 0 56 VBottom 2
WINDOW 3 32 56 VTop 2
SYMATTR InstName R1
SYMATTR Value 1
SYMBOL cap -2768 -416 R90
WINDOW 0 0 32 VBottom 2
WINDOW 3 32 32 VTop 2
SYMATTR InstName C3
SYMATTR Value 1µ
SYMBOL ind -2336 -656 R0
SYMATTR InstName L10
SYMATTR Value 10n
SYMBOL ind -1824 -656 R0
SYMATTR InstName L11
SYMATTR Value 10n
TEXT -2480 -176 Left 2 !.tran 50u
TEXT -2464 -96 Left 2 !K1 L1 L2 1
TEXT -2464 -64 Left 2 !K2 L4 L5 L6 L7 L8 1
TEXT -2464 -32 Left 2 !K3 L3 L9 0.8
