Version 4
SHEET 1 880 1032
WIRE -1056 -352 -1472 -352
WIRE -912 -352 -1056 -352
WIRE -736 -352 -912 -352
WIRE -608 -352 -736 -352
WIRE -1472 -336 -1472 -352
WIRE -1056 -336 -1056 -352
WIRE -1472 -240 -1472 -256
WIRE -1056 -240 -1056 -256
WIRE -912 -240 -912 -352
WIRE -2672 -224 -2736 -224
WIRE -2480 -224 -2544 -224
WIRE -2736 -192 -2736 -224
WIRE -2480 -192 -2480 -224
WIRE -736 -176 -736 -352
WIRE -608 -176 -608 -352
WIRE -1472 -144 -1472 -160
WIRE -1472 -144 -1488 -144
WIRE -1056 -144 -1056 -160
WIRE -1056 -144 -1072 -144
WIRE -1552 -128 -1584 -128
WIRE -1248 -128 -1280 -128
WIRE -1136 -128 -1168 -128
WIRE -1472 -112 -1488 -112
WIRE -1056 -112 -1072 -112
WIRE -912 -112 -912 -160
WIRE -176 -96 -192 -96
WIRE -80 -96 -96 -96
WIRE 32 -96 0 -96
WIRE 128 -96 96 -96
WIRE -736 -80 -736 -112
WIRE -672 -80 -736 -80
WIRE -2736 -64 -2736 -112
WIRE -2480 -64 -2480 -112
WIRE -1280 -48 -1280 -128
WIRE -1056 -48 -1056 -112
WIRE -1056 -48 -1280 -48
WIRE -1664 -32 -1664 -128
WIRE -1472 -32 -1472 -112
WIRE -1472 -32 -1664 -32
WIRE -672 -32 -672 -80
WIRE -256 -16 -304 -16
WIRE -1472 0 -1472 -32
WIRE -1440 0 -1472 0
WIRE -1056 0 -1056 -48
WIRE -1056 0 -1104 0
WIRE -912 16 -912 -32
WIRE -256 16 -256 -16
WIRE -192 16 -192 -96
WIRE 128 16 128 -96
WIRE -1056 80 -1056 0
WIRE -1056 80 -1072 80
WIRE -672 80 -672 48
WIRE -608 80 -608 -112
WIRE -608 80 -672 80
WIRE -1472 96 -1472 0
WIRE -1472 96 -1488 96
WIRE -1248 96 -1280 96
WIRE -1136 96 -1168 96
WIRE -736 96 -736 -80
WIRE -608 96 -608 80
WIRE 400 96 192 96
WIRE -1552 112 -1584 112
WIRE -1056 112 -1072 112
WIRE -1472 128 -1488 128
WIRE -256 128 -256 96
WIRE -192 128 -192 96
WIRE 128 128 128 96
WIRE 192 128 192 96
WIRE 400 128 400 96
WIRE -2736 144 -2736 16
WIRE -2672 144 -2672 -224
WIRE -2672 144 -2736 144
WIRE -2544 144 -2544 -224
WIRE -2544 144 -2672 144
WIRE -2480 144 -2480 16
WIRE -2480 144 -2544 144
WIRE -2448 144 -2480 144
WIRE -1664 176 -1664 112
WIRE -1472 176 -1472 128
WIRE -1472 176 -1664 176
WIRE -1280 176 -1280 96
WIRE -1056 176 -1056 112
WIRE -1056 176 -1280 176
WIRE -1472 192 -1472 176
WIRE -1056 192 -1056 176
WIRE -256 240 -256 208
WIRE -256 240 -320 240
WIRE -192 240 -192 208
WIRE -16 240 -192 240
WIRE 128 240 128 208
WIRE 128 240 -16 240
WIRE 192 240 192 208
WIRE 352 240 192 240
WIRE 400 240 400 208
WIRE 400 240 352 240
WIRE -16 272 -16 240
WIRE 352 272 352 240
WIRE -1472 288 -1472 272
WIRE -1056 288 -1056 272
WIRE -1472 384 -1472 368
WIRE -1056 384 -1056 368
WIRE -1056 384 -1472 384
WIRE -912 384 -912 80
WIRE -912 384 -1056 384
WIRE -736 384 -736 160
WIRE -736 384 -912 384
WIRE -608 384 -608 160
WIRE -608 384 -736 384
WIRE -1056 432 -1056 384
FLAG -16 272 0
FLAG 352 272 0
FLAG -2448 144 0
FLAG 400 96 V_workpiece
FLAG -304 -16 V_VA
FLAG -320 240 V_VB
FLAG -1056 432 0
FLAG -1440 0 V_VA
FLAG -1104 0 V_VB
SYMBOL ind2 112 224 M180
WINDOW 0 -5 26 Right 2
WINDOW 3 -26 3 Left 2
SYMATTR InstName L_Loutput
SYMATTR Value 5µ
SYMATTR Type ind
SYMATTR SpiceLine Rser=0
SYMBOL ind2 208 224 R180
WINDOW 0 -7 61 Right 2
WINDOW 3 -47 34 Left 2
SYMATTR InstName L_workpiece
SYMATTR Value 60n
SYMATTR Type ind
SYMATTR SpiceLine Rser=0
SYMBOL voltage -2736 -80 M0
WINDOW 123 24 152 Left 2
WINDOW 39 24 124 Left 2
SYMATTR Value2 AC 325 0
SYMATTR SpiceLine Rser=0
SYMATTR InstName VA
SYMATTR Value PULSE(-10 10 0 100n 100n {Ton} {T})
SYMBOL cap 32 -80 R270
WINDOW 0 44 50 VTop 2
WINDOW 3 0 32 VBottom 2
SYMATTR InstName C_Ctank
SYMATTR Value 5µ
SYMATTR SpiceLine Rser=0 Lser=0 Cpar=0
SYMBOL res -96 -80 R270
WINDOW 0 44 54 VTop 2
WINDOW 3 0 56 VBottom 2
SYMATTR InstName R_Ctank
SYMATTR Value 1m
SYMBOL res 112 0 R0
SYMATTR InstName R_Loutput
SYMATTR Value 229µ
SYMBOL ind2 -272 112 R0
WINDOW 0 -5 38 Right 2
WINDOW 3 -46 72 Left 2
SYMATTR InstName L_Tcouple_A
SYMATTR Value 1m
SYMATTR Type ind
SYMATTR SpiceLine Rser=0
SYMBOL ind2 -176 112 M0
WINDOW 0 -17 41 Right 2
WINDOW 3 -65 79 Left 2
SYMATTR InstName L_Tcouple_B
SYMATTR Value 2.5µ
SYMATTR Type ind
SYMATTR SpiceLine Rser=0
SYMBOL res -240 0 M0
SYMATTR InstName R_Tcouple_A
SYMATTR Value 500µ
SYMBOL res -208 0 R0
SYMATTR InstName R_Tcouple_B
SYMATTR Value 25µ
SYMBOL res 384 112 R0
SYMATTR InstName R_workpiece
SYMATTR Value {RL}
SYMBOL ind -192 -80 R270
WINDOW 0 41 27 VTop 2
WINDOW 3 5 56 VBottom 2
SYMATTR InstName L_Ctank
SYMATTR Value 6.4n
SYMATTR SpiceLine Rser=0
SYMBOL voltage -2480 -80 R0
WINDOW 123 24 152 Left 2
WINDOW 39 24 124 Left 2
SYMATTR Value2 AC 325 0
SYMATTR SpiceLine Rser=0
SYMATTR InstName VB
SYMATTR Value PULSE(-10 10 {T/2} 100n 100n {Ton} {T})
SYMBOL AutoGenerated\\IXFH50N60P3 -1104 -128 R0
WINDOW 3 -38 44 Top 2
SYMATTR InstName UA1
SYMBOL AutoGenerated\\IXFH50N60P3 -1104 96 R0
WINDOW 3 -39 44 Top 2
SYMATTR InstName UA2
SYMBOL AutoGenerated\\IXFH50N60P3 -1520 112 R0
WINDOW 3 119 -13 Top 2
SYMATTR InstName UB2
SYMBOL AutoGenerated\\IXFH50N60P3 -1520 -128 R0
SYMATTR InstName UB1
SYMBOL ind2 -1680 -112 R270
WINDOW 0 32 56 VTop 2
WINDOW 3 5 56 VBottom 2
SYMATTR InstName L_GB1
SYMATTR Value 20µ
SYMATTR Type ind
SYMBOL ind2 -1680 128 R270
WINDOW 0 32 56 VTop 2
WINDOW 3 5 56 VBottom 2
SYMATTR InstName L_GB2
SYMATTR Value 20µ
SYMATTR Type ind
SYMBOL ind2 -1264 112 R270
WINDOW 0 32 56 VTop 2
WINDOW 3 5 56 VBottom 2
SYMATTR InstName L_GA2
SYMATTR Value 20µ
SYMATTR Type ind
SYMBOL ind2 -1264 -112 R270
WINDOW 0 32 56 VTop 2
WINDOW 3 5 56 VBottom 2
SYMATTR InstName L_GA1
SYMATTR Value 20µ
SYMATTR Type ind
SYMBOL ind2 -2720 -208 M0
SYMATTR InstName L_GD2
SYMATTR Value 20µ
SYMATTR Type ind
SYMATTR SpiceLine Rser=1m
SYMBOL ind2 -2464 -208 M0
SYMATTR InstName L_GD1
SYMATTR Value 20µ
SYMATTR Type ind
SYMATTR SpiceLine Rser=1m
SYMBOL voltage -672 -48 R0
WINDOW 0 132 -74 Left 2
WINDOW 3 72 -12 Left 2
WINDOW 123 0 0 Left 2
WINDOW 39 73 -46 Left 2
SYMATTR InstName V1
SYMATTR Value SINE(0 325 50 0 0 90)
SYMATTR SpiceLine Rser=1m
SYMBOL diode -720 -112 R180
WINDOW 0 24 64 Left 2
WINDOW 3 24 0 Left 2
SYMATTR InstName D1
SYMATTR Value MUR460
SYMBOL diode -592 -112 R180
WINDOW 0 24 64 Left 2
WINDOW 3 24 0 Left 2
SYMATTR InstName D2
SYMATTR Value MUR460
SYMBOL diode -592 160 R180
WINDOW 0 24 64 Left 2
WINDOW 3 24 0 Left 2
SYMATTR InstName D3
SYMATTR Value MUR460
SYMBOL diode -720 160 R180
WINDOW 0 24 64 Left 2
WINDOW 3 24 0 Left 2
SYMATTR InstName D4
SYMATTR Value MUR460
SYMBOL cap -928 16 R0
SYMATTR InstName C1
SYMATTR Value 100µ
SYMATTR SpiceLine Rser=0 Lser=0
SYMBOL ind -1488 -256 R0
SYMATTR InstName L1
SYMATTR Value 30n
SYMBOL ind -1072 -256 R0
SYMATTR InstName L2
SYMATTR Value 30n
SYMBOL ind -1488 176 R0
SYMATTR InstName L3
SYMATTR Value 30n
SYMBOL ind -1072 176 R0
SYMATTR InstName L4
SYMATTR Value 30n
SYMBOL res -1488 -352 R0
SYMATTR InstName R1
SYMATTR Value 3m
SYMBOL res -1072 -352 R0
SYMATTR InstName R2
SYMATTR Value 3m
SYMBOL res -1072 272 R0
SYMATTR InstName R3
SYMATTR Value 3m
SYMBOL res -1488 272 R0
SYMATTR InstName R4
SYMATTR Value 3m
SYMBOL ind -928 -128 R0
SYMATTR InstName L5
SYMATTR Value 1n
SYMBOL res -928 -256 R0
SYMATTR InstName R5
SYMATTR Value 5.3m
TEXT 32 344 Left 2 !Kwork L_Loutput L_workpiece 1
TEXT -184 -504 Left 2 !.tran 10m uic
TEXT -504 344 Left 2 !Kcouple L_Tcouple_A L_Tcouple_B 1
TEXT -184 -472 Left 2 !.meas Pin AVG -V(V_VA)*I(VA) - V(V_VB)*I(VB)\n.meas Pout AVG V(V_workpiece)*I(R_workpiece)\n.meas Pworkcoil AVG V(N010,N016)*I(R_Loutput)\n.meas Ptankcaps AVG V(N008,N009)*I(R_Ctank)\n.meas Pcouple AVG V(N007,N015)*I(R_Tcouple_B)\n.meas Ploss PARAM Pworkcoil+Ptankcaps+Pcouple\n.meas eff PARAM Pout/Pin
TEXT 456 -152 Left 2 !.param RL 0.1\n.param D = 1.0\n.param T 31.415927u\n.param Ton = (T/2)*D
TEXT -1560 -512 Left 2 !KG1 L_GD1 L_GB2 L_GA1 1
TEXT -1560 -480 Left 2 !KG2 L_GD2 L_GB1 L_GA2 1
